*SPICE Netlist for circuit 470
I1 4 0 DC 1mA
M1 2 1 4 4 NMOS W=1u L=1u
R1 2 VDD 1k
.MODEL NMOS NMOS (LEVEL=1 VTO=1 KP=1.0e-4 LAMBDA=0.02)

.OP
.END

