* Z:\mnt\design.r\spice\examples\1117-5.asc
C1 N002 0 10µ
V1 N001 0 7
I1 N002 0 pulse(.1 .6 10u 1u 1u 50u 100u)
XU1 0 N002 N001 LT1117-5
.tran 300u
.lib LT1117.lib
.backanno
.end
