* Z:\mnt\design.r\spice\examples\1610.asc
C2 OUT 0 22µ
D1 N001 OUT MBRS140
L1 IN N001 4.7µ
R1 OUT N003 1Meg
R2 N003 0 324K
V1 IN 0 1.5
XU1 N004 N003 N002 0 N001 IN 0 N004 LT1610
Rload OUT 0 100
.model D D
.lib C:\users\brian\My Documents\LTspiceXVII\lib\cmp\standard.dio
.tran 2m startup
.lib LT1610.sub
.backanno
.end
