* Z:\mnt\design.r\spice\examples\3607.asc
XU1 NC_01 NC_02 IN 0 N001 IN IN N002 0 0 NC_03 MP_04 IN N004 N003 IN LTC3607
V1 IN 0 12
L1 N001 OUT1 4.7µ
R1 OUT1 N003 887K
C1 OUT1 N003 22p
R2 N003 0 121K
C2 OUT1 0 10µ
L2 N002 OUT2 4.7µ
R3 OUT2 N004 549K
C3 OUT2 N004 22p
R4 N004 0 121K
C4 OUT2 0 10µ
Rload1 OUT1 0 8.33
Rload2 OUT2 0 5.5
.tran .5m startup
.lib LTC3607.sub
.backanno
.end
