* Z:\mnt\design.r\spice\examples\3630.asc
XU1 N001 MP_01 IN MP_02 N002 N003 0 0 OUT N003 NC_03 NC_04 LTC3630
V1 IN 0 24
L1 N001 OUT 47µ
C1 OUT 0 100µ x2
Rload OUT 0 6.6
R1 IN N002 200K
R2 N002 0 15K
.tran 5m startup
.lib LTC3630.sub
.backanno
.end
