* Z:\mnt\design.r\spice\examples\3639.asc
V1 IN 0 75
L1 N001 OUT 470µ
C1 OUT 0 10µ
Rload OUT 0 50
XU1 N001 0 IN MP_01 IN 0 N002 0 OUT N002 NC_02 NC_03 LTC3639
.tran 1.5m startup
.lib LTC3639.sub
.backanno
.end
