* Z:\mnt\design.r\spice\examples\4625.asc
V1 IN 0 12
C1 N002 0 .005µ
R1 N003 0 40.2K
C2 OUT 0 47µ
Rload OUT 0 .3
XU1 NC_01 NC_02 N001 N003 N002 N004 IN NC_03 OUT 0 MP_04 MP_05 MP_06 MP_07 MP_08 MP_09 IN MP_10 IN MP_11 N001 0 NC_12 NC_13 LTM4625
.tran 1.5m startup
.lib LTM4625.sub
.backanno
.end
