* Z:\mnt\design.r\spice\examples\4639.asc
XU1 0 NC_01 OUT 0 OUT N004 N004 N002 0 N005 N007 N009 N006 N003 IN 0 NC_02 N009 N001 N008 0 LTM4639
C1 N006 0 .002µ
R1 N005 0 100K
V1 IN 0 3.3
R2 IN N003 5K
V2 N001 0 5
C2 0 N002 2.2µ
R3 N007 0 40.2K
C3 N007 0 22p
C4 N009 0 180p
C5 OUT N007 180p
C6 OUT 0 100µ x2
C7 OUT 0 680µ x2
Rload OUT 0 75m
.tran 1.2m startup
.lib LTM4639.sub
.backanno
.end
