* Z:\mnt\design.r\spice\examples\4649.asc
XU1 N002 NC_01 N003 MP_02 MP_03 MP_04 MP_05 MP_06 N001 OUT 0 N001 MP_07 OUT MP_08 NC_09 MP_10 0 MP_11 0 MP_12 MP_13 MP_14 MP_15 NC_16 IN MP_17 MP_18 MP_19 MP_20 NC_21 NC_22 NC_23 NC_24 NC_25 MP_26 MP_27 NC_28 LTM4649
V1 IN 0 12
C1 N002 0 .001µ
R1 N003 0 6.65K
C2 OUT 0 100µ x2
Rload OUT 0 .15
.tran 1m startup
.lib LTM4649.sub
.backanno
.end
