* Z:\mnt\design.r\spice\examples\8301.asc
V1 IN 0 24
L1 IN N002 40µ
L2 0 N001 4.4µ
R3 N002 N003 154K
D1 N001 OUT MBRS360
C1 OUT 0 100µ
Rload OUT 0 5
XU1 IN 0 N003 N002 IN LT8301
.model D D
.lib C:\users\brian\My Documents\LTspiceXVII\lib\cmp\standard.dio
K1 L1 L2 1
.tran 5m startup
.lib LT8301.sub
.backanno
.end
