* Z:\mnt\design.r\spice\examples\8606.asc
R1 N006 0 18.2K
C1 N004 0 0.001µ
V1 IN 0 12
C2 N001 0 1µ
L1 N003 OUT 6.8µ
C3 N002 N003 0.1µ
C4 OUT 0 10µ
R2 OUT N005 1Meg
R3 N005 0 310K
C5 OUT N005 10p
Rload OUT 0 15
XU1 N002 N003 N001 N006 NC_01 N005 N004 NC_02 IN IN 0 LT8606
.tran 500u startup
.lib LT8606.sub
.backanno
.end
