* Z:\mnt\design.r\spice\examples\8609B.asc
R1 N006 0 18.2K
C1 N004 0 .001µ
V1 IN 0 24
C2 N001 0 1µ
L1 N003 OUT 2.2µ
C3 N002 N003 .1µ
C4 OUT 0 22µ
R2 OUT N005 1Meg
R3 N005 0 187K
C5 OUT N005 10p
Rload OUT 0 2.5
XU1 N002 N003 N001 N006 MP_01 N005 N004 NC_02 IN IN 0 LT8609
.tran 500u startup
.lib LT8609.sub
.backanno
.end
