* Z:\mnt\design.r\spice\examples\8609.asc
R1 N007 0 18.2K
C1 N005 0 .001µ
V1 IN 0 24
C2 N001 0 1µ
L1 N004 OUT 2.2µ
C3 N003 N004 .1µ
C4 OUT 0 22µ
R2 OUT N006 1Meg
R3 N006 0 187K
C5 OUT N006 10p
Rload OUT 0 2.5
XU1 N003 N004 N001 N007 N002 N006 N005 NC_01 IN IN 0 LT8609
.tran 500u startup
.lib LT8609.sub
.backanno
.end
