* Z:\mnt\design.r\spice\examples\8611.asc
R1 N009 0 30.9K
C1 N008 0 .001µ
V1 IN 0 12
C2 N001 0 1µ
L1 N005 N006 4.7µ
C3 N004 N005 .1µ
C4 OUT 0 22µ
R2 OUT N010 1.15Meg
R3 N010 0 499K
C5 OUT N010 10p
Rload OUT 0 1.65
XU1 N003 N008 N009 IN IN N007 0 N006 N005 OUT N002 N004 N001 OUT NC_01 N010 0 LT8611
R4 N006 OUT 25m
C6 N006 OUT 1µ
.tran 750u startup
.lib LT8611.sub
.backanno
.end
