* Z:\mnt\design.r\spice\examples\8620.asc
R1 N006 0 60.4K
C1 N004 0 .001µ
V1 IN 0 48
C2 N001 0 1µ
L1 N005 OUT 4.7µ
C3 N003 N005 .1µ
C4 OUT 0 47µ
R2 OUT N007 1Meg
R3 N007 0 243K
C5 OUT N007 10p
Rload OUT 0 2.5
XU1 N002 N004 N006 IN IN MP_01 MP_02 MP_03 N005 MP_04 MP_05 N003 N001 OUT NC_06 N007 0 LT8620
.tran 750u startup
.lib LT8620.sub
.backanno
.end
