* Z:\mnt\design.r\spice\examples\8646S.asc
R1 N001 0 41.2K
V1 IN 0 12
L1 N002 OUT 2.2µ
C4 OUT 0 100µ
R2 OUT N004 1Meg
R3 N004 0 243K
C5 OUT N004 2.2p
Rload OUT 0 .625
C1 N003 0 1n
XU1 OUT NC_01 NC_02 IN NC_03 0 MP_04 N002 MP_05 0 MP_06 MP_07 IN IN N001 N003 0 0 NC_08 N004 MP_09 MP_10 MP_11 MP_12 MP_13 MP_14 MP_15 MP_16 MP_17 N005 LT8646S
C2 N005 0 330p
.tran 1m startup
.lib LT8646S.sub
.backanno
.end
