* Z:\mnt\design.r\spice\examples\1004-1.2.asc
? Missing component
R1 OUT N001 36K
V1 N001 0 PULSE(0 5 100u 10n 10n 500u 1)
.tran 700u
.lib LTC3.lib
.backanno
.end
