* Z:\mnt\design.r\spice\examples\1021-7.asc
XU1 IN 0 OUT LT1021-7
? Missing component
.tran 1m startup
.lib LTC3.lib
.backanno
.end
