* Z:\mnt\design.r\spice\examples\1078A.asc
V1 +V 0 5
R1 N002 N001 200K
R2 N001 IN 200K
V3 IN 0 SINE(0 1 100)
? Missing component
XU1 0 N001 +V 0 N003 LT1078
XU2 N002 OUT +V 0 OUT LT1078
.model D D
.lib C:\users\brian\My Documents\LTspiceXVII\lib\cmp\standard.dio
.tran 30m
* Absolute Value Circuit(Full-Wave Rectifier)
.lib LTC.lib
.backanno
.end
