* Z:\mnt\design.r\spice\examples\1083-5.asc
? Missing component
Rload OUT 0 10
C1 OUT 0 10µ
XU1 0 OUT IN LT1083-5
.tran 1
.lib LT1083.lib
.backanno
.end
