* Z:\mnt\design.r\spice\examples\1085-12.asc
V1 IN 0 PWL(0 0 1 20) Rser=0.1
Rload OUT 0 10
C1 OUT 0 10µ
? Missing component
.tran 1
.lib LT1083.lib
.backanno
.end
