* Z:\mnt\design.r\spice\examples\1101.asc
V1 +V 0 15
V2 -V 0 -15
V3 IN 0 SINE(0 .1 1K)
? Missing component
.tran 3m
.lib LTC.lib
.backanno
.end
