* Z:\mnt\design.r\spice\examples\1118-5.asc
V1 N001 0 10
C1 N002 0 1µ
? Missing component
.tran 3m startup
.lib LT1118.lib
.backanno
.end
