* Z:\mnt\design.r\spice\examples\118A.asc
V1 +V 0 15
V2 -V 0 -15
R1 N002 N001 5K
R2 N001 0 5K
V3 N003 0 SINE(0 1 1Meg)
? Missing component
.tran 3u
.lib LTC.lib
.backanno
.end
