* Z:\mnt\design.r\spice\examples\1250.asc
V1 +V 0 5
? Missing component
R1 N002 N001 5K
R2 N001 0 5K
V3 N003 0 SINE(0 1 1K)
XU1 N003 N001 +V -V N002 LTC1250
.tran 3m
.lib LTC.lib
.backanno
.end
