* Z:\mnt\design.r\spice\examples\1260.asc
V1 +V 0 5
V2 -V 0 -5
R1 OUT N001 1.6K
R2 N001 0 1.6K
? Missing component
XU1 IN N001 +V -V OUT LT1259
.tran 3m
.lib LTC.lib
.backanno
.end
