* Z:\mnt\design.r\spice\examples\1304-5.asc
C1 OUT 0 100µ Rser=0.02
D1 N001 OUT MBRS140
L1 IN N001 22µ Rser=0.02 Rpar=5000
V1 IN 0 3
? Missing component
Rload OUT 0 25
.model D D
.lib C:\users\brian\My Documents\LTspiceXVII\lib\cmp\standard.dio
.tran 1m startup
.lib LT1304.sub
.backanno
.end
