* Z:\mnt\design.r\spice\examples\1445.asc
V1 N001 0 5
V2 N002 0 PULSE(0 3.3 0 5m 5m 0 10m)
? Missing component
.tran 30m
.lib LTC.lib
.backanno
.end
