* Z:\mnt\design.r\spice\examples\1461-2.5.asc
V1 N001 0 5
I1 N002 0 PULSE(0 10m 1.5m 10n 10n 2m 200m)
? Missing component
XU1 0 N001 N001 N002 LT1461-2.5
.tran 7m
.lib LT1461.lib
.backanno
.end
