* Z:\mnt\design.r\spice\examples\1515-3.3.asc
V1 IN 0 3
R1 IN N001 5K
C1 N002 N003 1µ
C2 OUT 0 10µ
Rload OUT 0 100
? Missing component
.tran 2.5m startup
.lib LTC1515-3.3.sub
.backanno
.end
