* Z:\mnt\design.r\spice\examples\1585-3.3.asc
? Missing component
C1 OUT 0 22µ
Rload OUT 0 500
XU1 0 OUT IN LT1585-3.3
.tran 1
.lib LT1584.lib
.backanno
.end
