* Z:\mnt\design.r\spice\examples\1634-1.25.asc
V1 N001 0 3
R1 N001 N002 150K
? Missing component
.dc temp -40 80 .1
.lib LTC3.lib
.backanno
.end
