* Z:\mnt\design.r\spice\examples\1693-2.asc
V1 N001 0 5
? Missing component
XU1 N002 0 N002 0 N004 N001 N003 N001 LTC1693-2
.tran 100u
.lib LTC1693-2.sub
.backanno
.end
