* Z:\mnt\design.r\spice\examples\1761-SD.asc
? Missing component
C1 OUT 0 10µ
Rload OUT 0 500
XU1 IN 0 IN OUT OUT LT1761-SD
.tran 1
.lib LT1761.lib
.backanno
.end
