* Z:\mnt\design.r\spice\examples\1763-5.asc
V1 IN 0 PWL(0 0 1 10)
C1 OUT 0 10µ
Rload OUT 0 500
C2 OUT N001 .01µ
? Missing component
.tran 1
.lib LT1763.lib
.backanno
.end
