* Z:\mnt\design.r\spice\examples\1764-1.5.asc
? Missing component
C1 OUT 0 10µ Rser=100m
Rload OUT 0 500
XU1 IN IN 0 OUT OUT LT1764-1.5
.tran 1
.lib LT1764.lib
.backanno
.end
