* Z:\mnt\design.r\spice\examples\1790-5.asc
V1 IN 0 PWL(0 0 1 10)
C1 OUT 0 1µ
? Missing component
XU1 IN 0 OUT LT1790-5
.tran 1
.lib LT1790.lib
.backanno
.end
