* Z:\mnt\design.r\spice\examples\1795.asc
V1 +V 0 10
V2 -V 0 -10
R1 N002 N001 1K
R2 N001 0 1K
V3 N003 0 SINE(0 1 1K)
? Missing component
V4 N004 0 5
.tran 3m
.lib LTC.lib
.backanno
.end
