* Z:\mnt\design.r\spice\examples\1798.asc
? Missing component
V1 N001 0 PWL(0 0 1 10)
.tran 1
.lib LTC1798.lib
.backanno
.end
