* Z:\mnt\design.r\spice\examples\1963A-3.3.asc
V1 IN 0 PWL(0 0 1 10)
C1 OUT 0 1µ
Rload OUT 0 1K
? Missing component
.tran 1
.lib LT1963.lib
.backanno
.end
