* Z:\mnt\design.r\spice\examples\1965-1.5.asc
? Missing component
V1 IN 0 pwl(0 0 1 5)
Rload OUT 0 1.5
XU1 IN IN 0 OUT OUT LT1965-x.x R=2.85K
.tran 1 startup
.lib LT1965.lib
.backanno
.end
