* Z:\mnt\design.r\spice\examples\1992-1.asc
V1 +V 0 2.7
V2 -V 0 0
V3 N001 N005 SINE(0 0.5 10K)
C1 N002 0 10p
C2 N004 0 10p
? Missing component
.tran 1m
.lib LTC4.LIB
.backanno
.end
