* Z:\mnt\design.r\spice\examples\1996.asc
V1 -V 0 -5
V2 +V 0 +5
V4 N001 0 SINE(0 1m 10)
? Missing component
.tran .5
.lib LTC1.lib
.backanno
.end
