* Z:\mnt\design.r\spice\examples\1997-1.asc
? Missing component
V1 V+ 0 15
V2 V- 0 -15
R1 N002 N001 .1
R2 N003 N002 1
RL N001 0 10
Vs N002 0 0
.dc Vs 0 26.5 10m
* Gain = 10 Difference Amplifier
* V(out) = 1mV/mA in RL
.lib LTC6.lib
.backanno
.end
