* Z:\mnt\design.r\spice\examples\1999-20.asc
C1 0 N005 .1µ
V1 N002 N004 sine(0 50m 5K)
? Missing component
V3 N001 0 5
XU1 N001 N002 N004 MP_01 0 N005 OUT N003 LT1999-x Gain=20
.tran 3m
.lib LTC6.lib
.backanno
.end
