* Z:\mnt\design.r\spice\examples\2941.asc
Vbatt N001 0 3.7
Rsense N001 N002 100m
R1 N001 N003 10K
V2 N002 0 PULSE(3.9 3.5 1s 10m 10m 1 2)
? Missing component
.tran 5
.lib LTC2941.sub
.backanno
.end
