* Z:\mnt\design.r\spice\examples\3007-3.3.asc
? Missing component
C1 OUT 0 1µ
Rload OUT 0 330
XU1 IN OUT OUT 0 IN LT3008-3.3
.tran 1
.lib LT3009.lib
.backanno
.end
