* Z:\mnt\design.r\spice\examples\3060-3.3.asc
V1 IN 0 12
C1 N002 0 10n
C2 OUT N001 10n
C3 OUT 0 10µ
Rload OUT 0 33
? Missing component
.tran .1 startup
.lib LT3060-3.3.sub
.backanno
.end
