* Z:\mnt\design.r\spice\examples\3070.asc
? Missing component
C1 0 N006 .01µ
V1 N001 0 3
V2 IN 0 1.2
R1 OUT 0 .18
C2 0 N005 .01µ
C3 OUT 0 20µ
R2 N001 N002 50K
.tran 2m startup
.lib LT3070.sub
.backanno
.end
