* Z:\mnt\design.r\spice\examples\3204B-3.3.asc
? Missing component
C1 N001 N002 2.2µ
C2 OUT 0 2.2µ
Rload OUT 0 100
V1 IN 0 2.4
.tran 1m startup
.lib LTC3204B-3.3.sub
.backanno
.end
