* Z:\mnt\design.r\spice\examples\3221-3.3.asc
C1 N001 N002 1µ
V1 IN 0 2.5
C2 OUT 0 4.7µ
Rload OUT 0 55
? Missing component
.tran 1m startup
.lib LTC3221-3.3.sub
.backanno
.end
