* Z:\mnt\design.r\spice\examples\3406-1.2.asc
? Missing component
C1 OUT 0 22µ
L1 N001 OUT 4.7µ
Rload OUT 0 5
XU1 IN 0 N001 IN OUT LTC3406-x.x top=217K bot=220K
.tran 500u startup
.lib LTC3406-x.x.sub
.backanno
.end
