* Z:\mnt\design.r\spice\examples\3663-5.asc
L1 N002 N003 6.8µ
D1 0 N002 MBRS140
C1 N002 N001 .1µ
C2 OUT 0 22µ
V1 IN 0 12
R3 N004 0 28.7K
R4 OUT 0 10
? Missing component
.model D D
.lib C:\users\brian\My Documents\LTspiceXVII\lib\cmp\standard.dio
.tran 500u startup
.lib LT3663-x.sub
.backanno
.end
