* Z:\mnt\design.r\spice\examples\3970-3.3.asc
L1 N002 OUT 22µ
R3 N004 0 226K
C1 N001 N002 .22µ
C2 OUT 0 22µ
R4 IN N003 100K
V1 IN 0 10
Rload OUT 0 10
? Missing component
.tran 750u startup
.lib LT3970-3.3.sub
.backanno
.end
