* Z:\mnt\design.r\spice\examples\4217-12.asc
C1 N005 0 .1µ
V1 IN 0 12
C2 OUT 0 330µ
? Missing component
R1 N004 0 20K
R2 OUT N003 20K
S1 0 OUT N001 0 SHORT
V2 N001 0 PULSE(0 1 240m 1m 1m 10m)
.model SHORT SW(Ron=10m Roff=1K Vt=.5 Vh=-.4)
.tran 600m startup
.lib LTC4217-12.sub
.backanno
.end
