* Z:\mnt\design.r\spice\examples\4440-5.asc
V1 N001 0 5
? Missing component
XU1 N001 0 N002 0 N003 N001 LTC4440-5
.tran 50u
.lib LTC4440-5.sub
.backanno
.end
