* Z:\mnt\design.r\spice\examples\4600.asc
V1 IN 0 7
? Missing component
R1 N004 0 67K
R2 OUT N008 100K
Rload OUT 0 .15
C1 OUT 0 22µ
.tran 2.2m startup
.lib LTM4600.sub
.backanno
.end
