* Z:\mnt\design.r\spice\examples\4601.asc
? Missing component
C1 OUT N004 100p
R1 N004 0 40.2K
R2 N008 0 392K
C2 OUT 0 100µ
R3 IN N002 100K
R4 IN N003 100K
C3 N011 0 .001µ
V1 IN 0 6
Rload OUT 0 .25
.tran 750u startup
.lib LTM4601.sub
.backanno
.end
