* Z:\mnt\design.r\spice\examples\4650-1.asc
C1 N003 0 4.7µ
R1 0 N002 121K
V1 IN 0 12
R5 N005 0 90.9K
C5 N007 0 0.001µ
Rload OUT 0 0.025
? Missing component
C3 N006 0 10n Rser=3.24K
C6 N005 N004 68p
C4 OUT 0 220µ X6 Rser=6m
.tran .5m startup
.lib LTM4650-1.sub
.backanno
.end
