* Z:\mnt\design.r\spice\examples\4661.asc
? Missing component
R1 N001 0 31.6K
V1 IN 0 3.3
C2 OUT 0 22µ x2
R2 OUT 0 2.5
.tran 2m startup
.lib LTM4661.sub
.backanno
.end
