* Z:\mnt\design.r\spice\examples\5400-2.asc
XU2 N002 N001 +V -V OUT LT1468
V1 +V 0 15
V2 -V 0 -15
V3 IN 0 AC 1
C1 N001 OUT 4.7p
C2 N002 0 4.7p
? Missing component
.ac oct 10 1K 10Meg
.lib LT5400.lib
.lib LTC.lib
.backanno
.end
