* Z:\mnt\design.r\spice\examples\5505-1.asc
XU1 N003 0 N001 OUT N001 LTC5505-1
? Missing component
V2 N004 0 SINE(0 {V} 1G)
R1 N003 N002 100
C1 N002 N004 .3p
.tran 1u
.step param V list 1m 10m 100m 1
.lib LTC5505-1.sub
.backanno
.end
