* Z:\mnt\design.r\spice\examples\6005.asc
V1 +V 0 2
V2 -V 0 -2
? Missing component
XU1 IN OUT +V -V OUT LT6003
.tran 1
.lib LTC5.lib
.backanno
.end
