* Z:\mnt\design.r\spice\examples\6015.asc
V1 +V 0 5
V2 -V 0 -5
Vcom N001 0 50
R1 N002 N001 1K
R2 N003 N004 1K
Vin N001 N004 SINE(0 10m 1K)
R3 0 N003 100K
R4 Out N002 100K
? Missing component
.tran 5m
.lib LTC2.LIB
.backanno
.end
