* Z:\mnt\design.r\spice\examples\6105.asc
XU1 N004 N005 0 N006 MP_01 N003 LT6105
R1 N001 N002 50m
R2 N001 N003 100
? Missing component
R4 N006 0 100
V1 N001 0 36
V2 N005 0 5
I1 N002 0 SINE(1 .9 1K)
.tran 3m
.lib LTC6.lib
.backanno
.end
