* Z:\mnt\design.r\spice\examples\6106.asc
XU1 N004 0 N003 N001 N002 LT6106
R1 N004 0 1K
? Missing component
R2 N002 N001 20m
R3 N002 N003 100
I1 N001 0 SINE(1 1 1K)
.tran 3m
.lib LTC7.lib
.backanno
.end
