* Z:\mnt\design.r\spice\examples\6362.asc
? Missing component
R1 N003 N002 1K
R2 N002 N001 1K
R3 N007 N006 1K
R4 N006 0 1K
V1 N001 0 SINE(0 1 250K) AC 1
V2 N004 0 5
C1 N005 0 .1µ
.tran 100u
.lib LTC7.lib
.backanno
.end
