* Z:\mnt\design.r\spice\examples\6401-14.asc
V1 N004 0 SINE(0 100m 100Meg)
V2 N007 0 -1.5
V4 N001 0 1.5
? Missing component
.tran 100n
.lib LTC6.lib
.backanno
.end
