* Z:\mnt\design.r\spice\examples\6401-26.asc
V1 N004 0 SINE(0 10m 100Meg)
V2 N001 0 1.5
V3 N007 0 -1.5
? Missing component
.tran 100n
.lib LTC6.lib
.backanno
.end
