* Z:\mnt\design.r\spice\examples\6402-20.asc
V1 N001 0 5
V2 N003 0 2.2
? Missing component
V3 N002 N004 SINE(0 .1 10Meg)
.tran 1u
.lib LTC5.lib
.backanno
.end
