* Z:\mnt\design.r\spice\examples\6550.asc
V1 +V 0 5
V2 -V 0 -5
? Missing component
V3 N001 0 SINE(0 1 1K)
.tran 3m
.lib LTC2.LIB
.backanno
.end
