* Z:\mnt\design.r\spice\examples\6551.asc
V1 +V 0 5
V2 -V 0 -5
V3 N001 0 SINE(-2.5 1 1K)
? Missing component
.tran 3m
.lib LTC2.LIB
.backanno
.end
