* Z:\mnt\design.r\spice\examples\6552.asc
V1 +V 0 5
V2 -V 0 -5
V3 N001 0 SINE(0 1 100K)
R1 OUT N002 500
C1 OUT N002 .1p
R2 N002 0 500
? Missing component
.tran 100u
.lib LTC5.lib
.backanno
.end
