* Z:\mnt\design.r\spice\examples\6558.asc
V1 N001 0 5
R1 N007 0 350
C1 N002 0 .1µ
C2 N004 0 .1µ
? Missing component
C3 N006 IN .1µ
V2 IN 0 SINE(0 0.1 10Meg)
.tran 1u
.lib LTC5.lib
.backanno
.end
