* Z:\mnt\design.r\spice\examples\6559.asc
V1 +V 0 5
V2 -V 0 -5
? Missing component
R1 OUT 0 150
R2 OUT N001 301
R3 N001 0 182
V3 IN 0 PULSE(-1 1 0 .1n .1n 10u 20u)
.tran 100u
.lib LTC5.lib
.backanno
.end
