* Z:\mnt\design.r\spice\examples\6656-2.5.asc
C1 N002 0 1µ
V1 N001 0 PWL(0 0 1m 0 +100n 3)
? Missing component
.tran 20m
.lib LT6656.lib
.backanno
.end
