* Z:\mnt\design.r\spice\examples\6656-3.asc
C1 N002 0 1µ
? Missing component
XU1 0 N001 N002 LT6656-3
.tran 20m
.lib LT6656.lib
.backanno
.end
