* Z:\mnt\design.r\spice\examples\6656-4.096.asc
C1 N002 0 1µ
? Missing component
XU1 0 N001 N002 LT6656-4.096
.tran 50m
.lib LT6656.lib
.backanno
.end
