* Z:\mnt\design.r\spice\examples\6657-2.5.asc
C1 OUT 0 1µ
? Missing component
R1 OUT 0 250
C2 IN 0 .1µ
XU1 IN IN OUT 0 LT6657-2.5
.tran 10m
.lib LT6657.lib
.backanno
.end
