* Z:\mnt\design.r\spice\examples\6658-3.asc
C1 N001 0 1µ
V3 IN 0 PWL(0 0 100u 0 +2u 5.5)
C2 OUT2 0 1µ
C3 OUT1 0 1µ
? Missing component
.tran 500u
.lib LT6658.lib
.backanno
.end
