* Z:\mnt\design.r\spice\examples\6700-1.asc
V1 N001 0 5
? Missing component
XU1 N004 0 N002 N002 N001 N003 LT6700-1
R1 N001 N003 10K
R2 N001 N004 10K
.tran 3m
.lib LTC1.lib
.backanno
.end
