* Z:\mnt\design.r\spice\examples\6900.asc
? Missing component
R1 N001 N002 20K
V1 N001 0 3
.tran 10u
.lib LTC6900.sub
.backanno
.end
