* Z:\mnt\design.r\spice\examples\6905.asc
V1 N001 0 5
R1 N001 N003 25K
? Missing component
.tran 20u
.lib LTC6905.sub
.backanno
.end
