* Z:\mnt\design.r\spice\examples\6906.asc
? Missing component
R1 N003 0 100K
XU1 N002 0 0 N003 NC_01 N001 LTC6906
.tran .1m startup
.lib LTC6906.sub
.backanno
.end
