* Z:\mnt\design.r\spice\examples\6907.asc
V1 N001 0 3.2
? Missing component
XU1 N002 0 0 N003 NC_01 N001 LTC6907
.tran .1m startup
.lib LTC6907.sub
.backanno
.end
