* Z:\mnt\design.r\spice\examples\6908-2.asc
V1 N001 0 5
? Missing component
XU1 N001 0 N004 0 N003 N002 LTC6908-2
.tran 20u
.lib LTC6908-2.sub
.backanno
.end
