* Z:\mnt\design.r\spice\examples\8026.asc
V1 IN 0 24
R1 IN N001 100K
R2 N007 0 90.9K
R3 N004 0 9.09K
C1 OUT 0 330µ V=6.3 Irms=3.9 Rser=0.01 Lser=0 mfg="KEMET" pn="T520D337M006ASE010" type="Tantalum"
Rload OUT 0 .5
? Missing component
C2 OUT 0 100µ V=6.3 Irms=0 Rser=0.002 Lser=0 mfg="TDK" pn="C575OX5ROJI07M" type="X5R"
.tran 1.2m startup
.lib LTM8026.sub
.backanno
.end
