* Z:\mnt\design.r\spice\examples\8052.asc
? Missing component
V1 IN 0 24
R1 IN N001 510K
R2 N006 0 90.9K
R3 N003 0 9.09K
C1 OUT 0 330µ V=6.3 Irms=3.9 Rser=0.01 Lser=0 mfg="KEMET" pn="T520D337M006ASE010" type="Tantalum"
Rload OUT 0 .5
.tran 1.2m startup
.lib LTM8052.sub
.backanno
.end
