* Z:\mnt\design.r\spice\examples\8064.asc
? Missing component
V1 IN 0 55
R1 N003 0 130K
C1 OUT 0 100µ Rser=5m
C2 OUT 0 330µ Rser=50m
R2 N002 0 5.11K
Rload OUT 0 .833
.tran 2m startup
.lib LTM8064.sub
.backanno
.end
