* Z:\mnt\design.r\spice\examples\AD549.asc
V1 +V 0 15
R2 OUT N001 1G
V2 -V 0 -15
XU1 0 N001 +V -V OUT AD549
? Missing component
C1 OUT N001 .1p
.tran 3m
.lib ADI1.lib
.backanno
.end
