* Z:\mnt\design.r\spice\examples\AD8033.asc
V1 +V 0 12
Vin IN 0 SINE(0 1 100K)
? Missing component
R2 OUT N001 1K
XU1 IN N001 +V -V OUT AD8033
V2 -V 0 -12
.tran 100u
.lib ADI.lib
.backanno
.end
