* Z:\mnt\design.r\spice\examples\AD8205.asc
V1 IN 0 5
V2 N001 N002 SINE(0 10m 1K)
? Missing component
.tran 5m
.lib ADI.lib
.backanno
.end
