* Z:\mnt\design.r\spice\examples\ADA4807-4.asc
V1 +V 0 5
V2 IN 0 SINE(0 0.5 250K)
R1 N001 0 1K
R2 OUT N001 1K
V3 -V 0 -5
? Missing component
.tran 50u
.lib ADI.lib
.backanno
.end
