* Z:\mnt\design.r\spice\examples\ADA4505.asc
V1 +V 0 2.5
Vin IN 0 SINE(0 1 1K)
? Missing component
V2 -V 0 -2.5
Rload OUT 0 10K
.tran 10m
.lib ADI.lib
.backanno
.end
