* Z:\mnt\design.r\spice\examples\ADA4841.asc
V2 +V 0 5
? Missing component
XU1 IN OUT +V 0 OUT NC_01 ADA4841
.tran 500u
.lib ADI.lib
.backanno
.end
