* Z:\mnt\design.r\spice\examples\ADG411.asc
V1 +V 0 15
V2 -V 0 -15
V3 N001 0 SINE(0 10 1k)
? Missing component
R1 N002 0 1K
XU1 N003 N002 N001 -V 0 +V ADG411
.tran 30m
.lib ADG411.sub
.backanno
.end
