* Z:\mnt\design.r\spice\examples\ADM7160-2.5.asc
V1 IN 0 5
Rload OUT 0 25
? Missing component
C1 OUT 0 1µ
.tran 500u startup
.lib ADM7160-x.x.sub
.backanno
.end
