* Z:\mnt\design.r\spice\examples\ADP151-1.8.asc
V1 IN 0 5
Rload OUT 0 18
C1 OUT 0 1µ
.tran 500u startup
.lib ADP151-x.x.sub
.backanno
.end
