* Z:\mnt\design.r\spice\examples\ADP160-4.2.asc
? Missing component
C1 OUT 0 1µ
Rload OUT 0 420
V2 N001 0 PULSE(0 5 100u 50n 50n 2.5m)
XU1 IN 0 N001 OUT ADP16xfd K=238.1u
.tran 4m
.lib ADP16x.lib
.backanno
.end
