* Z:\mnt\design.r\spice\examples\ADP160-1.5.asc
V1 IN 0 5
C1 OUT 0 1µ
Rload OUT 0 150
? Missing component
XU1 IN 0 N001 OUT ADP16xfd K=666.7u
.tran 4m
.lib ADP16x.lib
.backanno
.end
