* Z:\mnt\design.r\spice\examples\ADP1606.asc
V1 IN 0 0.9
Cout OUT 0 6µ Rser=2m
L1 IN N001 2.2µ Rser=22m
Rload OUT 0 22
.tran 1m startup
.lib ADP1606.sub
.backanno
.end
