* Z:\mnt\design.r\spice\examples\ADP166-ADJ.asc
V1 IN 0 5
R1 OUT N002 230K
R2 N002 0 100K
C1 OUT 0 1µ
Rload OUT 0 330
? Missing component
XU1 IN 0 N001 OUT N002 ADP16xa
.tran 4m
.lib ADP16x.lib
.backanno
.end
