* Z:\mnt\design.r\spice\examples\ADP151-1.2.asc
V1 IN 0 5
Rload OUT 0 12
XU1 IN 0 IN MP_01 OUT ADP151-x.x T=200K
.tran 500u startup
.lib ADP151-x.x.sub
.backanno
.end
