* Z:\mnt\design.r\spice\examples\ADP160-3.3.asc
V1 IN 0 5
C1 OUT 0 1µ
Rload OUT 0 330
XU1 IN 0 N001 OUT ADP16xfd K=303u
.tran 4m
.lib ADP16x.lib
.backanno
.end
