* Z:\mnt\design.r\spice\examples\ADP160-1.2.asc
V1 IN 0 5
C1 OUT 0 1µ
Rload OUT 0 120
XU1 IN 0 N001 OUT ADP16xfd K=833.3u
.tran 4m
.lib ADP16x.lib
.backanno
.end
