* Z:\mnt\design.r\spice\examples\ADP166-2.85.asc
V1 IN 0 5
? Missing component
Rload OUT 0 285
V2 N001 0 PULSE(0 5 100u 50n 50n 2.5m)
XU1 IN 0 N001 OUT ADP16xfd K=350.9u
.tran 4m
.lib ADP16x.lib
.backanno
.end
