* Z:\mnt\design.r\spice\examples\ADP2139-1.2.asc
L1 N001 OUT 1µ Rser=60m
Rload OUT 0 3
C1 OUT 0 10µ
XU1 IN IN N001 OUT 0 IN ADP2139-x.x Rtop=112K
.tran .5m startup
.lib ADP2139-x.x.sub
.backanno
.end
