* Z:\mnt\design.r\spice\examples\ADP2119-1.2.asc
L1 N002 OUT 1.5µ
C1 OUT 0 22µ
R1 OUT N001 100K
V1 IN 0 5
Rload OUT 0 1.2
C2 OUT 0 22µ
? Missing component
.tran 1m
.lib ADP2119-1.2.sub
.backanno
.end
