* Z:\mnt\design.r\spice\examples\ADP2108-1.5.asc
V1 IN 0 5
L1 N001 OUT 1µ
Rload OUT 0 5
C1 OUT 0 10µ
? Missing component
.tran .5m startup
.lib ADP2108-x.x.sub
.backanno
.end
