* Z:\mnt\design.r\spice\examples\ADP2120-3.3.asc
L1 N002 OUT 2.2µ
C1 OUT 0 20µ
R1 OUT N001 100K
V1 IN 0 5
Rload OUT 0 3.3
? Missing component
.tran 1m
.lib ADP2120-3.3.sub
.backanno
.end
