* Z:\mnt\design.r\spice\examples\ADP2118-3.3.asc
L1 N002 OUT 1µ
C1 OUT 0 100µ
R1 OUT N001 100K
V1 IN 0 5
Rload1 OUT 0 1.1
.tran 2m startup
.lib ADP2118-x.x.sub
.backanno
.end
