* Z:\mnt\design.r\spice\examples\ADP2109-1.0.asc
? Missing component
L1 N001 OUT 1µ
Rload OUT 0 4
C1 OUT 0 10µ
XU1 IN IN N001 OUT 0 ADP2109-x.x Rtop=80K
.tran .5m startup
.lib ADP2109-x.x.sub
.backanno
.end
