* Z:\mnt\design.r\spice\examples\ADP2370-3.0.asc
V1 IN 0 12
L1 N002 OUT 10µ Ipk=1.84 Rser=0.056 Rpar=942 Cpar=0 mfg="Coilcraft" pn="MSS6132-103"
C1 OUT 0 10µ
R1 OUT N001 10K
Rload OUT 0 20
.tran 500u startup
.lib ADP2370.sub
.backanno
.end
