* Z:\mnt\design.r\spice\examples\ADP2138-0.8.asc
V1 IN 0 4
? Missing component
Rload OUT 0 2
C1 OUT 0 10µ
XU1 IN IN N001 OUT 0 IN ADP2138-x.x Rtop=48K
.tran .5m startup
.lib ADP2138-x.x.sub
.backanno
.end
