* Z:\mnt\design.r\spice\examples\ADP3654.asc
V1 N004 0 5
V2 N001 0 PULSE(0 2 0 1n 1n 5u 10u)
? Missing component
.tran 100u
.lib ADP3654.sub
.backanno
.end
