* Z:\mnt\design.r\spice\examples\ADP5300-4.asc
? Missing component
C1 OUT 0 10µ
R1 OUT N001 1Meg
V1 IN 0 5
Rload OUT 0 80
XU1 IN IN IN IN OUT N001 0 0 N002 0 ADP5300-4
.tran 3.5m startup
.lib ADP5300-4.sub
.backanno
.end
