* Z:\mnt\design.r\spice\examples\ADP5070.asc
R2 N003 0 15.8K
R1 OUT1 N003 115K
R6 N011 0 50K
C5 N010 N011 2n
L1 N001 N002 6.8µ
D1 N002 OUT1 MBRS140
C1 OUT1 0 5µ
Rload1 OUT1 0 200
C4 N009 0 1µ
C6 N007 0 1µ
V1 IN 0 5
R5 N008 N009 15.8K
R4 OUT2 N008 115K
L2 N006 0 6.8µ
D2 OUT2 N006 MBRS140
C3 OUT2 0 5µ
Rload2 OUT2 0 200
R3 N005 0 50K
C2 N004 N005 2n
.model D D
.lib C:\users\brian\My Documents\LTspiceXVII\lib\cmp\standard.dio
.tran 4.5m startup
.lib ADP5070_1.sub
.backanno
.end
