* Z:\mnt\design.r\spice\examples\ADP7159-04.asc
V1 IN 0 4
C1 OUT 0 10µ
R1 N003 N005 175K
R2 N005 0 100K
C2 N003 0 1µ
C3 N004 0 1µ
C4 N002 0 1µ Rser=10m Lser=1n
R3 IN N001 100K
? Missing component
Rload OUT 0 3.3
.tran 5m startup
.lib ADP7158_9.sub
.backanno
.end
