* Z:\mnt\design.r\spice\examples\ADP7142-2.5.asc
C2 N001 0 4.7n
V1 IN 0 3.5
Rload OUT 0 20
C1 OUT 0 2.2µ Rser=1.5m
? Missing component
.tran 6m startup
.lib ADP7102.lib
.backanno
.end
