* Z:\mnt\design.r\spice\examples\ADP7158-2.0.asc
V1 IN 0 3.0
C1 OUT 0 10µ
C2 N003 0 1µ
C3 N004 0 1µ
C4 N002 0 1µ
R1 IN N001 100K
Rload OUT 0 2.0
.tran 5m startup
.lib ADP7158_9.sub
.backanno
.end
