* Z:\mnt\design.r\spice\examples\ADuM4121B.asc
V1 N001 0 5
V2 N002 0 15
R1 OUT N004 5
C1 OUT 0 2n
V3 N003 0 PULSE(0 5 0 2n 2n 998n 2u)
? Missing component
.tran 100u startup
.lib ADuM4121xx.sub
.backanno
.end
